/*--------------------------------*- C++ -*----------------------------------*\
| =========                 |                                                 |
| \\      /  F ield         | OpenFOAM: The Open Source CFD Toolbox           |
|  \\    /   O peration     | Version:  v2012                                 |
|   \\  /    A nd           | Website:  www.openfoam.com                      |
|    \\/     M anipulation  |                                                 |
\*---------------------------------------------------------------------------*/
FoamFile
{
    version     2.0;
    format      ascii;
    class       dictionary;
    object      blockMeshDict;
}
// * * * * * * * * * * * * * * * * * * * * * * * * * * * * * * * * * * * * * //

scale   1;

vertices
(
    (0.45 0 0)
    (0.75 0 0)
    (0.75 0.2 0)
    (0.45 0.2 0)
    (0.45 0 0.2)
    (0.75 0 0.2)
    (0.75 0.2 0.2)
    (0.45 0.2 0.2)
);

blocks
(
    hex (0 1 2 3 4 5 6 7) (150 1 100) simpleGrading (1 1 1)
);

edges
(
);

boundary
(
    sides
    {
        type overset;
        faces
        (
            (0 3 2 1)
            (2 6 5 1)
            (0 4 7 3)
            (4 5 6 7)
        );
    }
    sidesfront
    {
        type empty;
        faces
        (
            (1 5 4 0)
        );
    }
    sidesback
    {
        type empty;
        faces
        (
            (3 7 6 2)
        );
    }

    flap
    {
        type wall;
        faces ();
    }
);

// ************************************************************************* //
