FoamFile
{
    version     2.0;
    format      ascii;
    class       dictionary;
    location    "constant";
    object      dynamicMeshDict;
}

// * * * * * * * * * * * * * * * * * * * * * * * * * * * * * * * * * * * * * //

dynamicFvMesh dynamicOversetFvMesh;

motionSolverLibs ("libfvMotionSolvers.so");

solver      displacementLaplacian;

displacementLaplacianCoeffs 
{

    diffusivity quadratic inverseDistance (flap);

}